Version 4
SHEET 1 880 680
WIRE -336 32 -512 32
WIRE 224 32 48 32
WIRE 256 32 224 32
WIRE 560 48 512 48
WIRE 208 64 80 64
WIRE 256 64 208 64
WIRE -336 112 -336 32
WIRE -336 112 -352 112
WIRE -304 112 -336 112
WIRE -16 112 -64 112
WIRE 48 112 48 32
WIRE 48 112 -16 112
WIRE 80 176 80 64
WIRE 80 176 -256 176
WIRE 208 192 192 192
WIRE 256 192 208 192
WIRE 576 208 512 208
WIRE 80 224 80 176
WIRE 208 224 80 224
WIRE 256 224 208 224
WIRE -512 288 -512 32
WIRE 192 288 192 192
WIRE 192 288 -512 288
FLAG -256 176 ENABLE
IOPIN -256 176 In
FLAG -352 112 ROW#
IOPIN -352 112 In
FLAG -16 112 ~ROW#
FLAG 224 32 ~ROW#
FLAG 208 192 ROW#
FLAG 208 224 ENABLE
FLAG 208 64 ENABLE
FLAG 560 48 ROW0
IOPIN 560 48 Out
FLAG 576 208 ROW1
IOPIN 576 208 Out
SYMBOL gate_andd 384 48 R0
SYMATTR InstName X1
SYMBOL gate_andd 384 208 R0
SYMATTR InstName X2
SYMBOL gate_invv -192 112 R0
SYMATTR InstName X3
TEXT -560 -128 Left 2 !.lib "E:\\downloads C\\DELAB PROJECT\\Tech_models.txt"
