Version 4
SHEET 1 880 680
WIRE 96 0 -32 0
WIRE 368 0 336 0
WIRE 400 0 368 0
WIRE -32 96 -32 0
WIRE -32 96 -48 96
WIRE -16 96 -32 96
WIRE 144 112 96 112
WIRE -320 128 -336 128
WIRE -304 128 -320 128
WIRE -16 128 -64 128
WIRE 176 144 96 144
WIRE -320 160 -320 128
WIRE -16 160 -320 160
WIRE 288 160 256 160
WIRE 320 160 288 160
WIRE 560 176 432 176
WIRE 176 192 176 144
WIRE 320 192 176 192
WIRE 560 208 432 208
WIRE 144 224 144 112
WIRE 224 224 144 224
WIRE 320 224 224 224
FLAG 176 256 0
FLAG 224 288 0
FLAG -48 96 clk
IOPIN -48 96 In
FLAG 368 0 ~clk
FLAG 288 160 ~clk
FLAG 144 112 Q_master
FLAG 560 176 Q_DFF
IOPIN 560 176 Out
FLAG -336 128 D
IOPIN -336 128 In
FLAG 560 208 ~Q_DFF
IOPIN 560 208 Out
SYMBOL SRLatchh 32 128 R0
SYMATTR InstName X1
SYMBOL SRLatchh 368 192 R0
SYMATTR InstName X2
SYMBOL gate_invv -192 128 R0
SYMATTR InstName X3
SYMBOL gate_invv 208 0 R0
SYMATTR InstName X4
SYMBOL cap 208 224 R0
SYMATTR InstName C1
SYMATTR Value 800f
SYMBOL cap 160 192 R0
SYMATTR InstName C2
SYMATTR Value 800f
