Version 4
SHEET 1 880 680
WIRE 352 -160 112 -160
WIRE 544 -160 352 -160
WIRE 112 -128 112 -160
WIRE 176 -128 112 -128
WIRE 352 -128 352 -160
WIRE 400 -128 352 -128
WIRE 176 -80 176 -128
WIRE 176 -80 112 -80
WIRE 400 -80 400 -128
WIRE 400 -80 352 -80
WIRE 64 -48 48 -48
WIRE 304 -48 288 -48
WIRE 112 16 112 -32
WIRE 208 16 112 16
WIRE 352 16 352 -32
WIRE 352 16 208 16
WIRE 208 64 208 16
WIRE 400 64 208 64
WIRE 688 64 640 64
WIRE 208 80 208 64
WIRE 272 128 208 128
WIRE 160 160 128 160
WIRE 208 192 208 176
WIRE 272 192 272 128
WIRE 272 192 208 192
WIRE 208 224 208 192
WIRE 240 272 208 272
WIRE 160 304 112 304
WIRE 208 336 208 320
WIRE 240 336 240 272
WIRE 240 336 208 336
WIRE 208 368 208 336
FLAG 208 368 0
FLAG 544 -80 0
FLAG 48 -48 IN1_AND
IOPIN 48 -48 In
FLAG 288 -48 IN2_AND
IOPIN 288 -48 In
FLAG 688 128 0
FLAG 688 64 out_And
IOPIN 688 64 Out
FLAG 128 160 IN1_AND
IOPIN 128 160 In
FLAG 112 304 IN2_AND
IOPIN 112 304 In
SYMBOL nmos4 160 224 R0
SYMATTR InstName M1
SYMATTR Value2 l=32n w=64n
SYMBOL nmos4 160 80 R0
SYMATTR InstName M2
SYMATTR Value2 l=32n w=64n
SYMBOL pmos4 304 -128 R0
SYMATTR InstName M3
SYMATTR Value2 l=32n w=128n
SYMBOL pmos4 64 -128 R0
SYMATTR InstName M4
SYMATTR Value2 l=32n w=128n
SYMBOL voltage 544 -176 R0
WINDOW 123 0 0 Left 0
WINDOW 39 0 0 Left 0
SYMATTR InstName V1
SYMATTR Value 1
SYMBOL gate_invv 512 64 R0
SYMATTR InstName X1
SYMBOL cap 672 64 R0
SYMATTR InstName C1
SYMATTR Value 30f
TEXT -328 -224 Left 2 !.lib "E:\\downloads C\\DELAB PROJECT\\Tech_models.txt"
