Version 4
SHEET 1 880 680
WIRE -48 64 -96 64
WIRE 288 80 208 80
WIRE -48 96 -128 96
WIRE 288 128 288 80
WIRE 416 128 288 128
WIRE 768 144 688 144
WIRE 384 160 336 160
WIRE 416 160 384 160
WIRE -128 208 -128 96
WIRE -128 208 -304 208
WIRE 368 256 336 256
WIRE 416 256 368 256
WIRE 784 272 688 272
WIRE -128 288 -128 208
WIRE -48 288 -128 288
WIRE 416 288 304 288
WIRE 304 304 304 288
WIRE 304 304 208 304
WIRE -48 320 -112 320
FLAG -96 64 S
IOPIN -96 64 In
FLAG -112 320 R
IOPIN -112 320 In
FLAG 768 144 ~Q
IOPIN 768 144 Out
FLAG 784 272 Q
IOPIN 784 272 Out
FLAG 384 160 Q
FLAG 368 256 ~Q
FLAG -304 208 CLK
IOPIN -304 208 In
SYMBOL gate_andd 80 80 R0
SYMATTR InstName X1
SYMBOL gate_andd 80 304 R0
SYMATTR InstName X2
SYMBOL gate_nor 544 144 R0
SYMATTR InstName X3
SYMBOL gate_nor 544 272 R0
SYMATTR InstName X4
